
OS:Version,
  {e00bf9af-923d-416a-b146-904b14ba12fa}, !- Handle
  2.1.0;                                  !- Version Identifier

OS:Site,
  {ba2f12b7-e58c-4773-9bf0-a77d0d56200a}, !- Handle
  CHICAGO_IL_USA TMY2-94846,              !- Name
  41.78,                                  !- Latitude {deg}
  -87.75,                                 !- Longitude {deg}
  -6,                                     !- Time Zone {hr}
  190,                                    !- Elevation {m}
  City;                                   !- Terrain

OS:SimulationControl,
  {957ff89f-dda5-4aef-a56c-9ee09a5a031d}, !- Handle
  No,                                     !- Do Zone Sizing Calculation
  No,                                     !- Do System Sizing Calculation
  No,                                     !- Do Plant Sizing Calculation
  Yes,                                    !- Run Simulation for Sizing Periods
  No,                                     !- Run Simulation for Weather File Run Periods
  0.04,                                   !- Loads Convergence Tolerance Value
  0.4,                                    !- Temperature Convergence Tolerance Value {deltaC}
  FullInteriorAndExterior,                !- Solar Distribution
  ,                                       !- Maximum Number of Warmup Days
  6;                                      !- Minimum Number of Warmup Days

OS:ElectricEquipment:Definition,
  {4b8ce768-ad08-41ca-ab0e-8aedb1dca01a}, !- Handle
  WEST PERIMETER ElecEq 1 Definition,     !- Name
  EquipmentLevel,                         !- Design Level Calculation Method
  456,                                    !- Design Level {W}
  ,                                       !- Watts per Space Floor Area {W/m2}
  ,                                       !- Watts per Person {W/person}
  0,                                      !- Fraction Latent
  0.3,                                    !- Fraction Radiant
  0;                                      !- Fraction Lost

OS:Schedule:Compact,
  {3d7d96e0-e61b-40a4-ab6b-76fb4da66eb4}, !- Handle
  Office Lighting 2,                      !- Name
  {0e04b350-379f-4461-98e7-1d479b2e628d}, !- Schedule Type Limits Name
  Through: 12/31,                         !- Field 1
  For: Weekdays SummerDesignDay,          !- Field 2
  Until: 05:00,                           !- Field 3
  0.05,                                   !- Field 4
  Until: 07:00,                           !- Field 5
  0.1,                                    !- Field 6
  Until: 08:00,                           !- Field 7
  0.3,                                    !- Field 8
  Until: 17:00,                           !- Field 9
  0.9,                                    !- Field 10
  Until: 18:00,                           !- Field 11
  0.5,                                    !- Field 12
  Until: 20:00,                           !- Field 13
  0.3,                                    !- Field 14
  Until: 22:00,                           !- Field 15
  0.2,                                    !- Field 16
  Until: 23:00,                           !- Field 17
  0.1,                                    !- Field 18
  Until: 24:00,                           !- Field 19
  0.05,                                   !- Field 20
  For: Saturday,                          !- Field 21
  Until: 06:00,                           !- Field 22
  0.05,                                   !- Field 23
  Until: 08:00,                           !- Field 24
  0.1,                                    !- Field 25
  Until: 12:00,                           !- Field 26
  0.3,                                    !- Field 27
  Until: 17:00,                           !- Field 28
  0.15,                                   !- Field 29
  Until: 24:00,                           !- Field 30
  0.05,                                   !- Field 31
  For: WinterDesignDay,                   !- Field 32
  Until: 24:00,                           !- Field 33
  0.0,                                    !- Field 34
  For: Sunday Holidays AllOtherDays,      !- Field 35
  Until: 24:00,                           !- Field 36
  0.05;                                   !- Field 37

OS:ScheduleTypeLimits,
  {0e04b350-379f-4461-98e7-1d479b2e628d}, !- Handle
  Fraction,                               !- Name
  0,                                      !- Lower Limit Value
  1,                                      !- Upper Limit Value
  Continuous;                             !- Numeric Type

OS:RunPeriod,
  {ea36b031-687d-4f77-9064-160f42b44978}, !- Handle
  Run Period 1,                           !- Name
  1,                                      !- Begin Month
  1,                                      !- Begin Day of Month
  12,                                     !- End Month
  31,                                     !- End Day of Month
  Yes,                                    !- Use Weather File Holidays and Special Days
  Yes,                                    !- Use Weather File Daylight Saving Period
  No,                                     !- Apply Weekend Holiday Rule
  Yes,                                    !- Use Weather File Rain Indicators
  Yes,                                    !- Use Weather File Snow Indicators
  1;                                      !- Number of Times Runperiod to be Repeated

OS:YearDescription,
  {24f49c2d-782e-4995-9e2a-e2b4c45d24e9}, !- Handle
  ,                                       !- Calendar Year
  UseWeatherFile;                         !- Day of Week for Start Day

OS:Construction,
  {02a97ad6-786e-4476-ab56-b398e46c2ca6}, !- Handle
  CLNG-1,                                 !- Name
  {33fe0f52-609e-4924-920b-5a810f36ba2e}, !- Surface Rendering Name
  {723838bf-5f19-4806-84f1-eaf3babf8d61}; !- Layer 1

OS:Material:NoMass,
  {723838bf-5f19-4806-84f1-eaf3babf8d61}, !- Handle
  MAT-CLNG-1,                             !- Name
  Rough,                                  !- Roughness
  0.65225929,                             !- Thermal Resistance {m2-K/W}
  0.65,                                   !- Thermal Absorptance
  0.65,                                   !- Solar Absorptance
  0.65;                                   !- Visible Absorptance

OS:WindowMaterial:Gas,
  {3296768c-ffa1-4606-a9e5-79f877a38bb9}, !- Handle
  AIR 13MM,                               !- Name
  Air,                                    !- Gas Type
  0.0127;                                 !- Thickness {m}

OS:WindowMaterial:Glazing,
  {d73ffead-b9d4-4ba6-a337-47f66c621c5d}, !- Handle
  GREY 3MM,                               !- Name
  Spectral,                               !- Optical Data Type
  ,                                       !- Window Glass Spectral Data Set Name
  0.003,                                  !- Thickness {m}
  0.626,                                  !- Solar Transmittance at Normal Incidence
  0.061,                                  !- Front Side Solar Reflectance at Normal Incidence
  0.061,                                  !- Back Side Solar Reflectance at Normal Incidence
  0.611,                                  !- Visible Transmittance at Normal Incidence
  0.061,                                  !- Front Side Visible Reflectance at Normal Incidence
  0.061,                                  !- Back Side Visible Reflectance at Normal Incidence
  0,                                      !- Infrared Transmittance at Normal Incidence
  0.84,                                   !- Front Side Infrared Hemispherical Emissivity
  0.84,                                   !- Back Side Infrared Hemispherical Emissivity
  0.9;                                    !- Conductivity {W/m-K}

OS:Construction,
  {8a865439-8394-497f-bf72-48f76876d97c}, !- Handle
  Double LoE Clear Argon,                 !- Name
  {d34a5292-19a8-46cc-ae32-23d7810e6baa}, !- Surface Rendering Name
  {a61702f4-339e-4f8c-8be9-8c34f9a42999}, !- Layer 1
  {f1be9434-03e2-4277-b620-16d0231ae8b4}, !- Layer 2
  {af6d1b8f-2f4d-4a70-9a09-df67947c8939}; !- Layer 3

OS:WindowMaterial:Glazing,
  {a61702f4-339e-4f8c-8be9-8c34f9a42999}, !- Handle
  LoE CLEAR 6MM,                          !- Name
  Spectral,                               !- Optical Data Type
  ,                                       !- Window Glass Spectral Data Set Name
  0.006,                                  !- Thickness {m}
  0.6,                                    !- Solar Transmittance at Normal Incidence
  0.17,                                   !- Front Side Solar Reflectance at Normal Incidence
  0.22,                                   !- Back Side Solar Reflectance at Normal Incidence
  0.84,                                   !- Visible Transmittance at Normal Incidence
  0.055,                                  !- Front Side Visible Reflectance at Normal Incidence
  0.078,                                  !- Back Side Visible Reflectance at Normal Incidence
  0,                                      !- Infrared Transmittance at Normal Incidence
  0.84,                                   !- Front Side Infrared Hemispherical Emissivity
  0.1,                                    !- Back Side Infrared Hemispherical Emissivity
  0.9;                                    !- Conductivity {W/m-K}

OS:WindowMaterial:Gas,
  {f1be9434-03e2-4277-b620-16d0231ae8b4}, !- Handle
  ARGON 13MM,                             !- Name
  Argon,                                  !- Gas Type
  0.0127;                                 !- Thickness {m}

OS:WindowMaterial:Glazing,
  {af6d1b8f-2f4d-4a70-9a09-df67947c8939}, !- Handle
  CLEAR 6MM,                              !- Name
  Spectral,                               !- Optical Data Type
  ,                                       !- Window Glass Spectral Data Set Name
  0.006,                                  !- Thickness {m}
  0.775,                                  !- Solar Transmittance at Normal Incidence
  0.071,                                  !- Front Side Solar Reflectance at Normal Incidence
  0.071,                                  !- Back Side Solar Reflectance at Normal Incidence
  0.881,                                  !- Visible Transmittance at Normal Incidence
  0.08,                                   !- Front Side Visible Reflectance at Normal Incidence
  0.08,                                   !- Back Side Visible Reflectance at Normal Incidence
  0,                                      !- Infrared Transmittance at Normal Incidence
  0.84,                                   !- Front Side Infrared Hemispherical Emissivity
  0.84,                                   !- Back Side Infrared Hemispherical Emissivity
  0.9;                                    !- Conductivity {W/m-K}

OS:Construction,
  {f70cf86a-0465-40ab-821a-6621f5518af8}, !- Handle
  WALL-1,                                 !- Name
  {c99445b0-1d32-491c-8a20-a3fec8f03b3e}, !- Surface Rendering Name
  {8a1099b4-1645-4348-92c8-7f69d0d9da64}, !- Layer 1
  {1fd5daf4-cac8-4445-b2f7-92d188aed3ac}, !- Layer 2
  {5c35b2f4-6021-4c0b-ac93-3e2a1cd82bd4}, !- Layer 3
  {49442706-30cc-4ec9-8d84-7bfd239466d7}; !- Layer 4

OS:Material,
  {8a1099b4-1645-4348-92c8-7f69d0d9da64}, !- Handle
  WD01,                                   !- Name
  MediumSmooth,                           !- Roughness
  0.019099999,                            !- Thickness {m}
  0.115,                                  !- Conductivity {W/m-K}
  513,                                    !- Density {kg/m3}
  1381,                                   !- Specific Heat {J/kg-K}
  0.9,                                    !- Thermal Absorptance
  0.78,                                   !- Solar Absorptance
  0.78;                                   !- Visible Absorptance

OS:Material,
  {1fd5daf4-cac8-4445-b2f7-92d188aed3ac}, !- Handle
  PW03,                                   !- Name
  MediumSmooth,                           !- Roughness
  0.0127,                                 !- Thickness {m}
  0.115,                                  !- Conductivity {W/m-K}
  545,                                    !- Density {kg/m3}
  1213,                                   !- Specific Heat {J/kg-K}
  0.9,                                    !- Thermal Absorptance
  0.78,                                   !- Solar Absorptance
  0.78;                                   !- Visible Absorptance

OS:Material,
  {5c35b2f4-6021-4c0b-ac93-3e2a1cd82bd4}, !- Handle
  IN02,                                   !- Name
  Rough,                                  !- Roughness
  0.090099998,                            !- Thickness {m}
  0.043000001,                            !- Conductivity {W/m-K}
  10,                                     !- Density {kg/m3}
  837,                                    !- Specific Heat {J/kg-K}
  0.9,                                    !- Thermal Absorptance
  0.75,                                   !- Solar Absorptance
  0.75;                                   !- Visible Absorptance

OS:Material,
  {49442706-30cc-4ec9-8d84-7bfd239466d7}, !- Handle
  GP01,                                   !- Name
  MediumSmooth,                           !- Roughness
  0.0127,                                 !- Thickness {m}
  0.16,                                   !- Conductivity {W/m-K}
  801,                                    !- Density {kg/m3}
  837,                                    !- Specific Heat {J/kg-K}
  0.9,                                    !- Thermal Absorptance
  0.75,                                   !- Solar Absorptance
  0.75;                                   !- Visible Absorptance

OS:Construction,
  {f5bb60e9-c69a-4db7-87ff-f8c60832287a}, !- Handle
  ROOF-1,                                 !- Name
  {9dfefc43-863a-45eb-911f-b3f09f426a17}, !- Surface Rendering Name
  {1598ac96-70dc-4644-8dc0-2d0f105728e7}, !- Layer 1
  {b8dd6da9-333a-41b5-9edb-f36158182452}, !- Layer 2
  {c16088fb-c203-4241-9e13-94c605ba744c}, !- Layer 3
  {8a1099b4-1645-4348-92c8-7f69d0d9da64}; !- Layer 4

OS:Material,
  {1598ac96-70dc-4644-8dc0-2d0f105728e7}, !- Handle
  RG01,                                   !- Name
  Rough,                                  !- Roughness
  0.0127,                                 !- Thickness {m}
  1.442,                                  !- Conductivity {W/m-K}
  881,                                    !- Density {kg/m3}
  1674,                                   !- Specific Heat {J/kg-K}
  0.9,                                    !- Thermal Absorptance
  0.65,                                   !- Solar Absorptance
  0.65;                                   !- Visible Absorptance

OS:Material,
  {b8dd6da9-333a-41b5-9edb-f36158182452}, !- Handle
  BR01,                                   !- Name
  VeryRough,                              !- Roughness
  0.0094999997,                           !- Thickness {m}
  0.162,                                  !- Conductivity {W/m-K}
  1121,                                   !- Density {kg/m3}
  1464,                                   !- Specific Heat {J/kg-K}
  0.9,                                    !- Thermal Absorptance
  0.7,                                    !- Solar Absorptance
  0.7;                                    !- Visible Absorptance

OS:Material,
  {c16088fb-c203-4241-9e13-94c605ba744c}, !- Handle
  IN46,                                   !- Name
  VeryRough,                              !- Roughness
  0.076200001,                            !- Thickness {m}
  0.023,                                  !- Conductivity {W/m-K}
  24,                                     !- Density {kg/m3}
  1590,                                   !- Specific Heat {J/kg-K}
  0.9,                                    !- Thermal Absorptance
  0.5,                                    !- Solar Absorptance
  0.5;                                    !- Visible Absorptance

OS:Schedule:Compact,
  {51d3fe20-5bcc-4d82-a57a-eef8355d33cd}, !- Handle
  Constant,                               !- Name
  {58688d2d-92c1-4773-be52-6ffb42b6c51f}, !- Schedule Type Limits Name
  Through: 12/31,                         !- Field 1
  For: AllDays,                           !- Field 2
  Until: 24:00,                           !- Field 3
  1.0;                                    !- Field 4

OS:ScheduleTypeLimits,
  {58688d2d-92c1-4773-be52-6ffb42b6c51f}, !- Handle
  On/Off,                                 !- Name
  0,                                      !- Lower Limit Value
  1,                                      !- Upper Limit Value
  Discrete,                               !- Numeric Type
  Availability;                           !- Unit Type

OS:Output:Variable,
  {f07e15c9-4ff1-45f6-874e-5f876557a01b}, !- Handle
  {8d7302f3-cf60-4f49-96bc-5e2a7aa718ea}, !- Name
  *,                                      !- Key Value
  Zone Infiltration Air Change Rate,      !- Variable Name
  Hourly;                                 !- Reporting Frequency

OS:Output:Meter,
  {77c454b0-d4d8-47e9-8a8c-117b24b305f6}, !- Handle
  Electricity:HVAC,                       !- Name
  RunPeriod,                              !- Reporting Frequency
  True,                                   !- Meter File Only
  False;                                  !- Cumulative

OS:ElectricEquipment:Definition,
  {db0aea70-446c-4eef-b88e-36425a5fe528}, !- Handle
  CORE ElecEq 1 Definition,               !- Name
  EquipmentLevel,                         !- Design Level Calculation Method
  1976,                                   !- Design Level {W}
  ,                                       !- Watts per Space Floor Area {W/m2}
  ,                                       !- Watts per Person {W/person}
  0,                                      !- Fraction Latent
  0.3,                                    !- Fraction Radiant
  0;                                      !- Fraction Lost

OS:Timestep,
  {a226a856-9a48-48c5-987b-535343cd155b}, !- Handle
  4;                                      !- Number of Timesteps per Hour

OS:Construction,
  {3992a12c-a1e0-4ca6-a918-560af5cc85e4}, !- Handle
  FLOOR-SLAB-1,                           !- Name
  {166b7695-de77-4f98-ba30-9cc93d043309}, !- Surface Rendering Name
  {ae666c50-40be-44a5-a3e6-9e2a04b70542}; !- Layer 1

OS:Material,
  {ae666c50-40be-44a5-a3e6-9e2a04b70542}, !- Handle
  CC03,                                   !- Name
  MediumRough,                            !- Roughness
  0.1016,                                 !- Thickness {m}
  1.31,                                   !- Conductivity {W/m-K}
  2243,                                   !- Density {kg/m3}
  837,                                    !- Specific Heat {J/kg-K}
  0.9,                                    !- Thermal Absorptance
  0.65,                                   !- Solar Absorptance
  0.65;                                   !- Visible Absorptance

OS:Output:Meter,
  {3c518d3c-6082-487b-bddf-df8476da8cd1}, !- Handle
  Electricity:Plant,                      !- Name
  RunPeriod,                              !- Reporting Frequency
  True,                                   !- Meter File Only
  False;                                  !- Cumulative

OS:Output:Meter,
  {c2dd6dda-d387-41d8-8b63-0c140eea64c3}, !- Handle
  Gas:Plant,                              !- Name
  RunPeriod,                              !- Reporting Frequency
  True,                                   !- Meter File Only
  False;                                  !- Cumulative

OS:Construction,
  {e1397119-4e18-42ff-8643-1aa3465797c6}, !- Handle
  INT-WALL-1,                             !- Name
  {875875c6-e119-4646-a3a9-394512ccc63e}, !- Surface Rendering Name
  {76349c16-fd3e-4f3a-8dff-63e5fc2ec12b}, !- Layer 1
  {e2ab1afe-6e8a-4056-baad-412d821bef67}, !- Layer 2
  {76349c16-fd3e-4f3a-8dff-63e5fc2ec12b}; !- Layer 3

OS:Material,
  {76349c16-fd3e-4f3a-8dff-63e5fc2ec12b}, !- Handle
  GP02,                                   !- Name
  MediumSmooth,                           !- Roughness
  0.015900001,                            !- Thickness {m}
  0.16,                                   !- Conductivity {W/m-K}
  801,                                    !- Density {kg/m3}
  837,                                    !- Specific Heat {J/kg-K}
  0.9,                                    !- Thermal Absorptance
  0.75,                                   !- Solar Absorptance
  0.75;                                   !- Visible Absorptance

OS:Material:AirGap,
  {e2ab1afe-6e8a-4056-baad-412d821bef67}, !- Handle
  AL21,                                   !- Name
  0.157;                                  !- Thermal Resistance {m2-K/W}

OS:ElectricEquipment:Definition,
  {f9b7b8e7-c1a8-41b9-8015-86ecb4f8a20d}, !- Handle
  EAST PERIMETER ElecEq 1 Definition,     !- Name
  EquipmentLevel,                         !- Design Level Calculation Method
  456,                                    !- Design Level {W}
  ,                                       !- Watts per Space Floor Area {W/m2}
  ,                                       !- Watts per Person {W/person}
  0,                                      !- Fraction Latent
  0.3,                                    !- Fraction Radiant
  0;                                      !- Fraction Lost

OS:HeatBalanceAlgorithm,
  {779cacdd-ca07-4d34-9e7d-ac5da3aac582}, !- Handle
  ConductionTransferFunction,             !- Algorithm
  200;                                    !- Surface Temperature Upper Limit {C}

OS:Schedule:Compact,
  {1998ae17-797b-4a1c-9f3b-1624c946a3a0}, !- Handle
  Office Heating Setpoints,               !- Name
  {bcd042fd-e48a-4a68-bbac-c6d4fa987a5f}, !- Schedule Type Limits Name
  Through: 12/31,                         !- Field 1
  For: Weekdays,                          !- Field 2
  Until: 06:00,                           !- Field 3
  12.8,                                   !- Field 4
  Until: 22:00,                           !- Field 5
  21.1,                                   !- Field 6
  Until: 24:00,                           !- Field 7
  12.8,                                   !- Field 8
  For: Saturday,                          !- Field 9
  Until: 06:00,                           !- Field 10
  12.8,                                   !- Field 11
  Until: 18:00,                           !- Field 12
  21.1,                                   !- Field 13
  Until: 24:00,                           !- Field 14
  12.8,                                   !- Field 15
  For: SummerDesignDay,                   !- Field 16
  Until: 24:00,                           !- Field 17
  12.8,                                   !- Field 18
  For: WinterDesignDay,                   !- Field 19
  Until: 24:00,                           !- Field 20
  21.1,                                   !- Field 21
  For: Sunday Holidays AllOtherDays,      !- Field 22
  Until: 24:00,                           !- Field 23
  12.8;                                   !- Field 24

OS:ScheduleTypeLimits,
  {bcd042fd-e48a-4a68-bbac-c6d4fa987a5f}, !- Handle
  Temperature,                            !- Name
  -60,                                    !- Lower Limit Value
  200,                                    !- Upper Limit Value
  Continuous,                             !- Numeric Type
  Temperature;                            !- Unit Type

OS:People:Definition,
  {99d17540-79cc-4e87-ba20-d481d4be7dc0}, !- Handle
  SOUTH PERIMETER People 1 Definition,    !- Name
  People,                                 !- Number of People Calculation Method
  11,                                     !- Number of People {people}
  ,                                       !- People per Space Floor Area {person/m2}
  ,                                       !- Space Floor Area per Person {m2/person}
  0.3;                                    !- Fraction Radiant

OS:Schedule:Compact,
  {760001c6-81a4-4f23-976b-9689cadc4097}, !- Handle
  Office Occupancy 2,                     !- Name
  {0e04b350-379f-4461-98e7-1d479b2e628d}, !- Schedule Type Limits Name
  Through: 12/31,                         !- Field 1
  For: Weekdays SummerDesignDay,          !- Field 2
  Until: 07:00,                           !- Field 3
  0.0,                                    !- Field 4
  Until: 08:00,                           !- Field 5
  0.2,                                    !- Field 6
  Until: 12:00,                           !- Field 7
  0.95,                                   !- Field 8
  Until: 13:00,                           !- Field 9
  0.5,                                    !- Field 10
  Until: 17:00,                           !- Field 11
  0.95,                                   !- Field 12
  Until: 18:00,                           !- Field 13
  0.3,                                    !- Field 14
  Until: 22:00,                           !- Field 15
  0.1,                                    !- Field 16
  Until: 24:00,                           !- Field 17
  0.0,                                    !- Field 18
  For: Saturday,                          !- Field 19
  Until: 07:00,                           !- Field 20
  0.0,                                    !- Field 21
  Until: 08:00,                           !- Field 22
  0.1,                                    !- Field 23
  Until: 12:00,                           !- Field 24
  0.3,                                    !- Field 25
  Until: 17:00,                           !- Field 26
  0.1,                                    !- Field 27
  Until: 18:00,                           !- Field 28
  0.05,                                   !- Field 29
  Until: 24:00,                           !- Field 30
  0.0,                                    !- Field 31
  For: Sunday Holidays WinterDesignDay AllOtherDays, !- Field 32
  Until: 24:00,                           !- Field 33
  0.0;                                    !- Field 34

OS:Schedule:Compact,
  {b9040a11-0bd1-48e7-a062-ee8848fc05b1}, !- Handle
  ActSchd,                                !- Name
  {c187d8cf-d25b-4cae-bc54-3c3f8bc6f346}, !- Schedule Type Limits Name
  Through: 12/31,                         !- Field 1
  For: AllDays,                           !- Field 2
  Until: 24:00,                           !- Field 3
  117.239997864;                          !- Field 4

OS:ScheduleTypeLimits,
  {d028b7f7-60be-4574-b804-b7854612ce0a}, !- Handle
  {16f81e86-643a-4780-8d31-90c71160bd0a}; !- Name

OS:ScheduleTypeLimits,
  {c187d8cf-d25b-4cae-bc54-3c3f8bc6f346}, !- Handle
  ActivityLevel,                          !- Name
  0,                                      !- Lower Limit Value
  ,                                       !- Upper Limit Value
  Continuous,                             !- Numeric Type
  ActivityLevel;                          !- Unit Type

OS:Output:Variable,
  {d69b8a66-ef58-46b4-b07b-a3f5b734101a}, !- Handle
  {1fe98c22-12fd-4b71-82cd-a7e5d91c0f04}, !- Name
  *,                                      !- Key Value
  Zone Air System Sensible Cooling Rate,  !- Variable Name
  Hourly;                                 !- Reporting Frequency

OS:Lights:Definition,
  {c64b49cd-a77a-43b5-96cd-d9813eb12f9d}, !- Handle
  WEST PERIMETER Lights 1 Definition,     !- Name
  LightingLevel,                          !- Design Level Calculation Method
  684,                                    !- Lighting Level {W}
  ,                                       !- Watts per Space Floor Area {W/m2}
  ,                                       !- Watts per Person {W/person}
  0.59,                                   !- Fraction Radiant
  0.2,                                    !- Fraction Visible
  0.2;                                    !- Return Air Fraction

OS:ElectricEquipment:Definition,
  {ea3e0903-a804-4ca7-8936-ef870aec6896}, !- Handle
  NORTH PERIMETER ElecEq 1 Definition,    !- Name
  EquipmentLevel,                         !- Design Level Calculation Method
  1056,                                   !- Design Level {W}
  ,                                       !- Watts per Space Floor Area {W/m2}
  ,                                       !- Watts per Person {W/person}
  0,                                      !- Fraction Latent
  0.3,                                    !- Fraction Radiant
  0;                                      !- Fraction Lost

OS:Output:Meter,
  {97da5c50-243c-434b-9932-1574bbd10ac0}, !- Handle
  Gas:HVAC,                               !- Name
  Monthly,                                !- Reporting Frequency
  True,                                   !- Meter File Only
  False;                                  !- Cumulative

OS:Output:Meter,
  {c97600c3-a722-4361-83e8-a54732865982}, !- Handle
  Electricity:Facility,                   !- Name
  Monthly,                                !- Reporting Frequency
  True,                                   !- Meter File Only
  False;                                  !- Cumulative

OS:Material:NoMass,
  {84804584-e983-4d7e-aa3f-dd792d1f6c0c}, !- Handle
  MAT-FLOOR-1,                            !- Name
  Rough,                                  !- Roughness
  3.522199631,                            !- Thermal Resistance {m2-K/W}
  0.65,                                   !- Thermal Absorptance
  0.65,                                   !- Solar Absorptance
  0.65;                                   !- Visible Absorptance

OS:People:Definition,
  {322c2f76-580b-46b8-ae30-e7928fc5ca5d}, !- Handle
  WEST PERIMETER People 1 Definition,     !- Name
  People,                                 !- Number of People Calculation Method
  5,                                      !- Number of People {people}
  ,                                       !- People per Space Floor Area {person/m2}
  ,                                       !- Space Floor Area per Person {m2/person}
  0.3;                                    !- Fraction Radiant

OS:Lights:Definition,
  {8f04397b-bebf-4622-9db2-73842e5e2b5a}, !- Handle
  NORTH PERIMETER Lights 1 Definition,    !- Name
  LightingLevel,                          !- Design Level Calculation Method